server/uncc-corvid/examples/GridPACK/contingency_analysis/Polish_model_v23.raw
0  100.000
 0,    100.00, 30, 0, 0, 60.00       / September 06, 2016 22:53:52; Simulator V
 0,    100.00, 30, 0, 0, 60.00       / September 06, 2016 22:53:52; Simulator V
      1, 1,     0.000,     0.000,  0.000000,  0.000000,   1,1.091230,-2.529971,'1           ',220.0000,   1
      2, 1,     0.000,     0.000,  0.000000,  0.000000,   1,1.092345,-0.728930,'2           ',220.0000,   1
      3, 1,     0.000,     0.000,  0.000000,  0.000000,   1,1.053845,-25.701939,'3           ',220.0000,   1
      4, 1,     0.000,     0.000,  0.000000,  0.000000,   1,1.053801,-25.711460,'4           ',220.0000,   1
      5, 1,     0.000,     0.000,  0.000000,  0.000000,   1,1.064565,-27.822212,'5           ',220.0000,   1
      6, 1,     0.000,     0.000,  0.000000,  0.000000,   1,1.057921,-7.447913,'6           ',220.0000,   1
      7, 1,     0.000,     0.000,  0.000000,  0.000000,   1,1.057906,-7.449853,'7           ',220.0000,   1
      8, 1,     0.000,     0.000,  0.000000,  0.000000,   1,1.066699,-15.888587,'8           ',220.0000,   1
      9, 1,     0.000,     0.000,  0.000000,  0.000000,   1,1.066952,-15.872956,'9           ',220.0000,   1
     10, 1,     0.000,     0.000,  0.000000,  0.000000,   1,1.076928,-20.174858,'10          ',220.0000,   1
     11, 1,     0.000,     0.000,  0.000000,  0.000000,   1,1.010355,-11.790504,'11          ',400.0000,   1
     12, 1,     0.000,     0.000,  0.000000,  0.000000,   1,1.010420,-11.781775,'12          ',400.0000,   1
     13, 1,     0.000,     0.000,  0.000000,  0.000000,   1,0.982784,-16.092756,'13          ',400.0000,   1
     14, 1,     0.000,     0.000,  0.000000,  0.000000,   1,1.014448,-16.487797,'14          ',220.0000,   1
     15, 1,     0.000,     0.000,  0.000000,  0.000000,   1,1.014268,-16.491549,'15          ',220.0000,   1
     16, 1,     0.000,     0.000,  0.000000,  0.000000,   1,0.983522,-21.048187,'16          ',220.0000,   1
     17, 1,     0.000,     0.000,  0.000000,  0.000000,   1,0.981074,-21.103018,'17          ',220.0000,   1
     18, 1,     0.000,     0.000,  0.000000,  0.000000,   1,1.012013,-10.418365,'18          ',400.0000,   1
     19, 1,     0.000,     0.000,  0.000000,  0.000000,   1,1.012078,-10.409015,'19          ',400.0000,   1
     20, 1,     0.000,     0.000,  0.000000,  0.000000,   1,0.988948,-19.865797,'20          ',400.0000,   1
     21, 1,     0.000,     0.000,  0.000000,  0.000000,   1,1.003809,-16.161236,'21          ',400.0000,   1
     22, 2,    10.000,    20.000,  0.000000,  0.000000,   1,1.068180,-19.982048,'22          ',220.0000,   1
     23, 2,    10.000,    20.000,  0.000000,  0.000000,   1,1.068180,-19.983007,'23          ',220.0000,   1
     24, 1,     0.000,     0.000,  0.000000,  0.000000,   1,1.064980,-6.617832,'24          ',220.0000,   1
     25, 1,     0.000,     0.000,  0.000000,  0.000000,   1,1.065064,-6.629132,'25          ',220.0000,   1
     26, 1,     0.000,     0.000,  0.000000,  0.000000,   1,1.015137,-19.832838,'26          ',220.0000,   1
     27, 1,     0.000,     0.000,  0.000000,  0.000000,   1,1.015113,-19.830359,'27          ',220.0000,   1
     28, 1,     0.000,     0.000,  0.000000,  0.000000,   1,1.017191,-15.672796,'28          ',220.0000,   1
     29, 1,     0.000,     0.000,  0.000000,  0.000000,   1,1.017099,-15.689116,'29          ',220.0000,   1
     30, 1,     0.000,     0.000,  0.000000,  0.000000,   1,1.071872,-4.160272,'30          ',220.0000,   1
     31, 1,     0.000,     0.000,  0.000000,  0.000000,   1,1.071753,-4.183342,'31          ',220.0000,   1
     32, 1,     0.000,     0.000,  0.000000,  0.000000,   1,1.005871,-14.949747,'32          ',400.0000,   1
     33, 1,     0.000,     0.000,  0.000000,  0.000000,   1,1.005843,-14.955236,'33          ',400.0000,   1
     34, 1,     0.000,     0.000,  0.000000,  0.000000,   1,0.999490,-18.377817,'34          ',400.0000,   1
     35, 2,    32.160,    52.070,  0.000000,  0.000000,   1,1.095450,-2.342651,'35          ',220.0000,   1
     36, 2,    46.360,    92.070,  0.000000,  0.000000,   1,1.095450,-0.548080,'36          ',220.0000,   1
     37, 3,    60.000,   120.000,  0.000000,  0.000000,   1,1.040000, 0.000000,'37          ',400.0000,   1
     38, 2,    60.000,   120.000,  0.000000,  0.000000,   1,1.040000,-0.006300,'38          ',400.0000,   1
     39, 1,     0.000,     0.000,  0.000000,  0.000000,   1,1.010069,-18.073145,'39          ',220.0000,   1
     40, 1,     0.000,     0.000,  0.000000,  0.000000,   1,1.009980,-18.076538,'40          ',220.0000,   1
     41, 1,     0.000,     0.000,  0.000000,  0.000000,   1,1.034481,-1.900081,'41          ',400.0000,   1
     42, 1,     0.000,     0.000,  0.000000,  0.000000,   1,1.034464,-1.902501,'42          ',400.0000,   1
     43, 1,     0.000,     0.000,  0.000000,  0.000000,   1,1.009704,-16.827848,'43          ',220.0000,   1
     44, 1,     0.000,     0.000,  0.000000,  0.000000,   1,1.003906,-16.161716,'44          ',400.0000,   1
     45, 1,     0.000,     0.000,  0.000000,  0.000000,   1,1.047187,-9.399504,'45          ',220.0000,   1
     46, 1,     0.000,     0.000,  0.000000,  0.000000,   1,1.047267,-9.407774,'46          ',220.0000,   1
     47, 1,     0.000,     0.000,  0.000000,  0.000000,   1,1.065123,-7.381463,'47          ',220.0000,   2
     48, 1,     0.000,     0.000,  0.000000,  0.000000,   1,1.068871,-4.348012,'48          ',220.0000,   2
     49, 1,     0.000,     0.000,  0.000000,  0.000000,   1,1.080237,-2.523551,'49          ',220.0000,   2
     50, 1,     0.000,     0.000,  0.000000,  0.000000,   1,1.080220,-2.526941,'50          ',220.0000,   2
     51, 1,     0.000,     0.000,  0.000000,  0.000000,   1,1.038884,-8.311593,'51          ',220.0000,   2
     52, 1,     3.970,     1.000,  0.000000,  0.000000,   1,1.082505,-4.619782,'52          ',220.0000,   2
     53, 1,     0.000,     0.000,  0.000000,  0.000000,   1,1.082565,-4.608952,'53          ',220.0000,   2
     54, 1,     0.000,     0.000,  0.000000,  0.000000,   1,1.021578,-3.740261,'54          ',400.0000,   2
     55, 2,    13.000,    30.000,  0.000000,  0.000000,   1,1.090875,-6.933333,'55          ',220.0000,   2
     56, 2,    39.350,    90.070,  0.000000,  0.000000,   1,1.090730,-6.949313,'56          ',220.0000,   2
     57, 2,    26.000,    60.000,  0.000000,  0.000000,   1,1.090910,-6.923993,'57          ',220.0000,   2
     58, 2,    26.000,    50.000,  0.000000,  0.000000,   1,1.035000,-6.686812,'58          ',400.0000,   2
     59, 2,    26.000,    50.000,  0.000000,  0.000000,   1,1.035027,-6.681172,'59          ',400.0000,   2
     60, 1,     0.000,     0.000,  0.000000,  0.000000,   1,1.076740,-5.226362,'60          ',220.0000,   2
     61, 1,     0.000,     0.000,  0.000000,  0.000000,   1,1.046516,-3.589631,'61          ',400.0000,   2
     62, 1,     0.000,     0.000,  0.000000,  0.000000,   1,1.046507,-3.590981,'62          ',400.0000,   2
     63, 1,     0.000,     0.000,  0.000000,  0.000000,   1,1.029674,-7.754873,'63          ',400.0000,   2
     64, 1,     0.000,     0.000,  0.000000,  0.000000,   1,1.051542,-6.491693,'64          ',220.0000,   2
     65, 1,     0.000,     0.000,  0.000000,  0.000000,   1,1.051523,-6.484762,'65          ',220.0000,   2
     66, 1,     0.000,     0.000,  0.000000,  0.000000,   1,1.031092,-4.959472,'66          ',400.0000,   2
     67, 1,     0.000,     0.000,  0.000000,  0.000000,   1,1.031096,-4.952282,'67          ',400.0000,   2
     68, 2,    13.000,    30.000,  0.000000,  0.000000,   1,1.086467,-0.884190,'68          ',220.0000,   2
     69, 2,    26.000,    60.000,  0.000000,  0.000000,   1,1.086360,-0.868440,'69          ',220.0000,   2
     70, 2,     0.000,     2.250,  0.000000,  0.000000,   1,1.032451,-2.743291,'70          ',400.0000,   2
     71, 2,    26.000,    60.000,  0.000000,  0.000000,   1,1.032500,-2.743351,'71          ',400.0000,   2
     72, 1,     0.000,     0.000,  0.000000,  0.000000,   1,1.075229,-7.688303,'72          ',220.0000,   2
     73, 1,     0.000,     0.000,  0.000000,  0.000000,   1,1.075225,-7.686313,'73          ',220.0000,   2
     74, 1,     0.000,     0.000,  0.000000,  0.000000,   1,1.076396,-4.777252,'74          ',220.0000,   2
     75, 1,     0.000,     0.000,  0.000000,  0.000000,   1,1.076428,-4.782382,'75          ',220.0000,   2
     76, 1,     0.000,     0.000,  0.000000,  0.000000,   1,1.081263,-7.380393,'76          ',220.0000,   2
     77, 1,     0.000,     0.000,  0.000000,  0.000000,   1,1.081267,-7.385443,'77          ',220.0000,   2
     78, 1,     0.000,     0.000,  0.000000,  0.000000,   1,1.043397,-3.326131,'78          ',400.0000,   2
     79, 1,     0.000,     0.000,  0.000000,  0.000000,   1,1.043403,-3.329341,'79          ',400.0000,   2
     80, 1,     0.000,     0.000,  0.000000,  0.000000,   1,1.073007,-4.208032,'80          ',220.0000,   2
     81, 1,     0.000,     0.000,  0.000000,  0.000000,   1,1.074245,-4.194802,'81          ',220.0000,   2
     82, 1,     0.000,     0.000,  0.000000,  0.000000,   1,1.054912,-5.104023,'82          ',220.0000,   2
     83, 1,     0.000,     0.000,  0.000000,  0.000000,   1,1.074026,-2.630821,'83          ',220.0000,   3
     84, 1,     6.410,     2.010,  0.000000,  0.000000,   1,1.069270,-3.069921,'84          ',220.0000,   3
     85, 1,    13.890,     5.020,  0.000000,  0.000000,   1,1.069071,-3.084281,'85          ',220.0000,   3
     86, 1,     0.000,     0.000,  0.000000,  0.000000,   1,1.066224,-0.955580,'86          ',220.0000,   3
     87, 1,     0.000,     0.000,  0.000000,  0.000000,   1,1.066348,-0.945120,'87          ',220.0000,   3
     88, 1,     0.000,     0.000,  0.000000,  0.000000,   1,1.081551, 0.697760,'88          ',220.0000,   3
     89, 1,     0.000,     0.000,  0.000000,  0.000000,   1,1.081572, 0.693820,'89          ',220.0000,   3
     90, 1,     0.000,     0.000,  0.000000,  0.000000,   1,1.039415,-3.014381,'90          ',220.0000,   3
     91, 1,     0.000,     0.000,  0.000000,  0.000000,   1,1.039177,-3.014581,'91          ',220.0000,   3
     92, 2,    28.000,    70.000,  0.000000,  0.000000,   1,1.077004,-0.052590,'92          ',220.0000,   3
     93, 2,    28.000,    68.000,  0.000000,  0.000000,   1,1.078633,-0.183190,'93          ',220.0000,   3
     94, 1,     2.780,     1.910,  0.000000,  0.000000,   1,1.059518,-0.334540,'94          ',220.0000,   3
     95, 1,     0.000,     0.000,  0.000000,  0.000000,   1,1.059526,-0.337590,'95          ',220.0000,   3
     96, 2,    32.000,   142.000,  0.000000,  0.000000,   1,1.037500, 1.420531,'96          ',400.0000,   3
     97, 1,     0.000,     0.000,  0.000000,  0.000000,   1,1.037473, 1.393051,'97          ',400.0000,   3
     98, 1,     0.000,     0.000,  0.000000,  0.000000,   1,1.037603,-1.257910,'98          ',220.0000,   3
     99, 1,     0.000,     0.000,  0.000000,  0.000000,   1,1.077131, 0.474080,'99          ',220.0000,   3
    100, 1,     0.000,     0.000,  0.000000,  0.000000,   1,1.077116, 0.467700,'100         ',220.0000,   3
    101, 1,    38.800,    -2.700,  0.000000,  0.000000,   1,1.077166,-2.386211,'101         ',220.0000,   3
    102, 1,     0.000,     0.000,  0.000000,  0.000000,   1,1.077123,-2.387381,'102         ',220.0000,   3
    103, 1,     0.000,     0.000,  0.000000,  0.000000,   1,1.073705,-0.060590,'103         ',220.0000,   3
    104, 1,     0.000,     0.000,  0.000000,  0.000000,   1,1.073604,-0.062920,'104         ',220.0000,   3
    105, 1,     0.000,     0.000,  0.000000,  0.000000,   1,1.079410,-2.143391,'105         ',220.0000,   3
    106, 1,     0.000,     0.000,  0.000000,  0.000000,   1,1.079430,-2.144971,'106         ',220.0000,   3
    107, 1,     0.000,     0.000,  0.000000,  0.000000,   1,1.038770,-1.169670,'107         ',400.0000,   3
    108, 1,     0.000,     0.000,  0.000000,  0.000000,   1,1.038798,-1.163121,'108         ',400.0000,   3
    109, 1,     0.000,     0.000,  0.000000,  0.000000,   1,1.076578, 0.347390,'109         ',220.0000,   3
    110, 1,     0.000,     0.000,  0.000000,  0.000000,   1,1.076556, 0.350560,'110         ',220.0000,   3
    111, 1,     0.000,     0.000,  0.000000,  0.000000,   1,1.058043, 0.354200,'111         ',220.0000,   3
    112, 1,     0.000,     0.000,  0.000000,  0.000000,   1,1.057952, 0.346010,'112         ',220.0000,   3
    113, 2,    38.410,    12.710,  0.000000,  0.000000,   1,1.073964,-1.298260,'113         ',220.0000,   3
    114, 1,     0.000,     0.000,  0.000000,  0.000000,   1,1.073958,-1.306000,'114         ',220.0000,   3
    115, 1,     0.000,     0.000,  0.000000,  0.000000,   1,1.069384,-3.052131,'115         ',220.0000,   3
    116, 1,     0.000,     0.000,  0.000000,  0.000000,   1,1.069390,-3.054881,'116         ',220.0000,   3
    117, 1,     0.000,     0.000,  0.000000,  0.000000,   1,1.026213,-2.989531,'117         ',220.0000,   3
    118, 1,     0.000,     0.000,  0.000000,  0.000000,   1,1.026126,-2.986301,'118         ',220.0000,   3
    119, 2,    10.000,    44.000,  0.000000,  0.000000,   1,1.081820, 1.028530,'119         ',220.0000,   3
    120, 2,    10.000,    44.000,  0.000000,  0.000000,   1,1.081820, 1.012000,'120         ',220.0000,   3
    121, 2,     7.000,    18.000,  0.000000,  0.000000,   1,1.081817, 0.254720,'121         ',220.0000,   3
    122, 2,     8.000,    21.000,  0.000000,  0.000000,   1,1.081820, 0.268160,'122         ',220.0000,   3
    123, 1,     0.000,     0.000,  0.000000,  0.000000,   1,1.072277,-2.177741,'123         ',220.0000,   3
    124, 1,    59.400,    11.610,  0.000000,  0.000000,   1,1.072302,-2.182291,'124         ',220.0000,   3
    125, 1,     0.000,     0.000,  0.000000,  0.000000,   1,1.027394,-3.365781,'125         ',220.0000,   3
    126, 1,     0.000,     0.000,  0.000000,  0.000000,   1,1.058506, 0.346530,'126         ',220.0000,   3
    127, 1,     0.000,     0.000,  0.000000,  0.000000,   1,1.058523, 0.343120,'127         ',220.0000,   3
    128, 1,     0.000,     0.000,  0.000000,  0.000000,   1,1.059705,-0.550180,'128         ',220.0000,   3
    129, 1,     0.000,     0.000,  0.000000,  0.000000,   1,1.059833,-0.545970,'129         ',220.0000,   3
    130, 1,     0.000,     0.000,  0.000000,  0.000000,   1,1.033728,-0.568120,'130         ',400.0000,   3
    131, 1,     0.000,     0.000,  0.000000,  0.000000,   1,1.033728,-0.568120,'131         ',400.0000,   3
    132, 2,     0.000,     1.780,  0.000000,  0.000000,   1,1.074890,-0.696890,'132         ',220.0000,   3
    133, 2,     9.000,    20.000,  0.000000,  0.000000,   1,1.074829,-0.697990,'133         ',220.0000,   3
    134, 2,     6.000,    15.000,  0.000000,  0.000000,   1,1.041602,-2.215571,'134         ',220.0000,   3
    135, 1,     0.000,     0.000,  0.000000,  0.000000,   1,1.041690,-2.217121,'135         ',220.0000,   3
    136, 1,     0.000,     0.000,  0.000000,  0.000000,   1,1.041910,-3.223651,'136         ',400.0000,   3
    137, 1,     0.000,     0.000,  0.000000,  0.000000,   1,1.041978,-3.222671,'137         ',400.0000,   3
    138, 1,     0.000,     0.000,  0.000000,  0.000000,   1,1.042092,-1.440491,'138         ',400.0000,   3
    139, 1,     0.000,     0.000,  0.000000,  0.000000,   1,1.042101,-1.442411,'139         ',400.0000,   3
    140, 1,     0.000,     0.000,  0.000000,  0.000000,   1,1.019227,-3.647652,'140         ',220.0000,   3
    141, 1,     0.000,     0.000,  0.000000,  0.000000,   1,1.019258,-3.643461,'141         ',220.0000,   3
    142, 2,    18.200,    37.210,  0.000000,  0.000000,   1,1.081820, 1.918351,'142         ',220.0000,   3
    143, 2,    41.520,    73.010,  0.000000,  0.000000,   1,1.081820, 1.930821,'143         ',220.0000,   3
    144, 2,    28.000,    66.000,  0.000000,  0.000000,   1,1.037500, 0.970710,'144         ',400.0000,   3
    145, 1,     0.000,     0.000,  0.000000,  0.000000,   1,1.037459, 0.965120,'145         ',400.0000,   3
    146, 1,     0.000,     0.000,  0.000000,  0.000000,   1,1.076233,-2.408781,'146         ',220.0000,   3
    147, 1,     0.000,     0.000,  0.000000,  0.000000,   1,1.076270,-2.400981,'147         ',220.0000,   3
    148, 1,     0.000,     0.000,  0.000000,  0.000000,   1,1.078140, 0.106820,'148         ',220.0000,   3
    149, 1,     0.000,     0.000,  0.000000,  0.000000,   1,1.078083,-2.125471,'149         ',220.0000,   3
    150, 2,     0.000,    -0.790,  0.000000,  0.000000,   1,1.039494,-3.014961,'150         ',220.0000,   3
    151, 2,     0.000,    -0.790,  0.000000,  0.000000,   1,1.039255,-3.015171,'151         ',220.0000,   3
    152, 2,     7.700,    20.000,  0.000000,  0.000000,   1,1.066049,-12.125275,'152         ',220.0000,   4
    153, 2,     7.800,    20.000,  0.000000,  0.000000,   1,1.066054,-12.133474,'153         ',220.0000,   4
    154, 1,     0.000,     0.000,  0.000000,  0.000000,   1,1.037808,-9.580744,'154         ',220.0000,   4
    155, 1,     0.000,     0.000,  0.000000,  0.000000,   1,1.037807,-9.581714,'155         ',220.0000,   4
    156, 1,     0.000,     0.000,  0.000000,  0.000000,   1,1.008905,-11.162444,'156         ',220.0000,   4
    157, 1,     0.000,     0.000,  0.000000,  0.000000,   1,1.057460,-8.149513,'157         ',220.0000,   4
    158, 1,     0.000,     0.000,  0.000000,  0.000000,   1,1.057364,-8.157403,'158         ',220.0000,   4
    159, 1,     0.000,     0.000,  0.000000,  0.000000,   1,1.007698,-6.773413,'159         ',400.0000,   4
    160, 1,     0.000,     0.000,  0.000000,  0.000000,   1,1.007684,-6.773532,'160         ',400.0000,   4
    161, 1,     0.000,     0.000,  0.000000,  0.000000,   1,1.009225,-21.292269,'161         ',220.0000,   4
    162, 1,     0.000,     0.000,  0.000000,  0.000000,   1,1.050471,-32.974594,'162         ',220.0000,   4
    163, 1,     0.000,     0.000,  0.000000,  0.000000,   1,1.050471,-32.974594,'163         ',220.0000,   4
    164, 1,     0.000,     0.000,  0.000000,  0.000000,   1,1.025541,-27.873802,'164         ',220.0000,   4
    165, 1,     0.000,     0.000,  0.000000,  0.000000,   1,1.025541,-27.873802,'165         ',220.0000,   4
    166, 1,     0.000,     0.000,  0.000000,  0.000000,   1,1.004330,-11.449815,'166         ',220.0000,   4
    167, 2,     0.000,   -13.010,  0.000000,  0.000000,   1,1.052902,-16.163027,'167         ',220.0000,   4
    168, 1,     0.000,     0.000,  0.000000,  0.000000,   1,1.052945,-16.167557,'168         ',220.0000,   4
    169, 2,    12.000,    30.000,  0.000000,  0.000000,   1,1.081719,-31.250273,'169         ',220.0000,   4
    170, 2,    19.910,    36.570,  0.000000,  0.000000,   1,1.081820,-31.231743,'170         ',220.0000,   4
    171, 2,    12.000,    30.000,  0.000000,  0.000000,   1,1.032500,-24.190990,'171         ',400.0000,   4
    172, 2,    12.000,    30.000,  0.000000,  0.000000,   1,1.032520,-24.176399,'172         ',400.0000,   4
    173, 1,     0.000,     0.000,  0.000000,  0.000000,   1,0.973737,-21.106649,'173         ',220.0000,   4
    174, 1,     0.000,     0.000,  0.000000,  0.000000,   1,0.973796,-21.114698,'174         ',220.0000,   4
    175, 1,     0.000,     0.000,  0.000000,  0.000000,   1,0.996593,-20.557718,'175         ',220.0000,   4
    176, 1,     0.000,     0.000,  0.000000,  0.000000,   1,0.996710,-20.550230,'176         ',220.0000,   4
    177, 2,    30.500,    64.200,  0.000000,  0.000000,   1,1.090910,-4.930882,'177         ',220.0000,   4
    178, 2,    58.900,    96.000,  0.000000,  0.000000,   1,1.090910,-4.929422,'178         ',220.0000,   4
    179, 1,     0.000,     0.000,  0.000000,  0.000000,   1,1.090910,-4.929422,'179         ',220.0000,   4
    180, 2,    26.500,    64.200,  0.000000,  0.000000,   1,1.026957,-3.822441,'180         ',400.0000,   4
    181, 1,     0.000,     0.000,  0.000000,  0.000000,   1,1.026914,-3.824962,'181         ',400.0000,   4
    182, 1,     0.000,     0.000,  0.000000,  0.000000,   1,1.053884,-32.915920,'182         ',220.0000,   4
    183, 1,     0.000,     0.000,  0.000000,  0.000000,   1,1.053884,-32.915920,'183         ',220.0000,   4
    184, 1,     0.000,     0.000,  0.000000,  0.000000,   1,1.014984,-5.600042,'184         ',400.0000,   4
    185, 1,     0.000,     0.000,  0.000000,  0.000000,   1,0.993573,-12.685175,'185         ',400.0000,   4
    186, 1,     0.000,     0.000,  0.000000,  0.000000,   1,1.012922,-5.103673,'186         ',400.0000,   4
    187, 1,     0.000,     0.000,  0.000000,  0.000000,   1,1.012984,-5.092332,'187         ',400.0000,   4
    188, 2,    12.000,    30.000,  0.000000,  0.000000,   1,1.054550,-16.272127,'188         ',220.0000,   4
    189, 2,    23.800,    60.000,  0.000000,  0.000000,   1,1.054461,-16.292517,'189         ',220.0000,   4
    190, 2,    38.000,    64.000,  0.000000,  0.000000,   1,1.005000,-10.411854,'190         ',400.0000,   4
    191, 1,     0.000,     0.000,  0.000000,  0.000000,   1,1.005933,-28.758072,'191         ',220.0000,   4
    192, 1,     0.000,     0.000,  0.000000,  0.000000,   1,1.005987,-28.771173,'192         ',220.0000,   4
    193, 1,     0.000,     0.000,  0.000000,  0.000000,   1,1.048580,-33.089622,'193         ',220.0000,   4
    194, 1,     0.000,     0.000,  0.000000,  0.000000,   1,1.048569,-33.090992,'194         ',220.0000,   4
    195, 1,     0.000,     0.000,  0.000000,  0.000000,   1,1.012790,-21.019310,'195         ',220.0000,   4
    196, 1,     0.000,     0.000,  0.000000,  0.000000,   1,1.012692,-21.031160,'196         ',220.0000,   4
    197, 1,     0.000,     0.000,  0.000000,  0.000000,   1,0.975662,-17.416338,'197         ',400.0000,   4
...
0 / END OF GENERATOR DATA, BEGIN BRANCH DATA
      4,      3,'1 ',  0.00002,  0.00021,  0.00000, 876.00, 876.00, 876.00,0.00000,000.000, 0.00000, 0.00000, 0.00000, 0.00000, 1
      5,      3,'1 ',  0.00068,  0.08078,  0.00000, 160.00, 160.00, 160.00,0.999900,0.000000,0.000000,0.000000,00.00000,00.00000, 1
      7,      6,'1 ',  0.00002,  0.00021,  0.00000, 876.00, 876.00, 876.00,0.00000,000.000, 0.00000, 0.00000, 0.00000, 0.00000, 1
      9,      8,'1 ',  0.00002,  0.00021,  0.00000, 876.00, 876.00, 876.00,0.00000,000.000, 0.00000, 0.00000, 0.00000, 0.00000, 1
      9,     11,'1 ',  0.00064,  0.03050,  0.00000, 400.00, 400.00, 400.00,1.092710,0.000000,0.000000,0.000000,00.00000,00.00000, 1
     10,      8,'1 ',  0.00079,  0.07524,  0.00000, 160.00, 160.00, 160.00,0.999900,0.000000,0.000000,0.000000,00.00000,00.00000, 1
     11,     19,'1 ',  0.00110,  0.01271,  0.35206, 838.00, 838.00, 838.00,0.00000,000.000, 0.00000, 0.00000, 0.00000, 0.00000, 1
     11,     21,'1 ',  0.00286,  0.03355,  0.90157, 838.00, 838.00, 838.00,0.00000,000.000, 0.00000, 0.00000, 0.00000, 0.00000, 1
     12,     11,'1 ',  0.00001,  0.00006,  0.00000,1593.00,1593.00,1593.00,0.00000,000.000, 0.00000, 0.00000, 0.00000, 0.00000, 1
     13,     12,'1 ',  0.00069,  0.03946,  0.00000, 299.89, 389.86, 250.00,0.999900,0.000000,0.000000,0.000000,00.00000,00.00000, 1
     14,      8,'1 ',  0.00558,  0.04147,  0.06290, 231.00, 231.00, 231.00,0.00000,000.000, 0.00000, 0.00000, 0.00000, 0.00000, 1
     15,      6,'1 ',  0.01300,  0.09781,  0.14013, 375.00, 375.00, 375.00,0.00000,000.000, 0.00000, 0.00000, 0.00000, 0.00000, 1
     15,     14,'1 ',  0.00002,  0.00021,  0.00000, 876.00, 876.00, 876.00,0.00000,000.000, 0.00000, 0.00000, 0.00000, 0.00000, 1
     16,     14,'1 ',  0.00059,  0.07897,  0.00000, 160.00, 160.00, 160.00,0.999900,0.000000,0.000000,0.000000,00.00000,00.00000, 1
     17,     15,'1 ',  0.00062,  0.08296,  0.00000, 160.00, 160.00, 160.00,0.999900,0.000000,0.000000,0.000000,00.00000,00.00000, 1
     19,     18,'1 ',  0.00001,  0.00006,  0.00000,1593.00,1593.00,1593.00,0.00000,000.000, 0.00000, 0.00000, 0.00000, 0.00000, 1
     19,     38,'1 ',  0.00342,  0.03928,  1.08290,1154.00,1154.00,1154.00,0.00000,000.000, 0.00000, 0.00000, 0.00000, 0.00000, 1
     20,     18,'1 ',  0.00088,  0.05709,  0.00000, 436.44, 567.37, 330.00,0.999900,0.000000,0.000000,0.000000,00.00000,00.00000, 1
     22,      3,'1 ',  0.01068,  0.07936,  0.12155, 231.00, 231.00, 231.00,0.00000,000.000, 0.00000, 0.00000, 0.00000, 0.00000, 1
     22,      9,'1 ',  0.01469,  0.10915,  0.16676, 317.00, 317.00, 317.00,0.00000,000.000, 0.00000, 0.00000, 0.00000, 0.00000, 1
     23,     22,'1 ',  0.00002,  0.00021,  0.00000, 876.00, 876.00, 876.00,0.00000,000.000, 0.00000, 0.00000, 0.00000, 0.00000, 1
     24,      6,'1 ',  0.00287,  0.01671,  0.02467, 295.00, 295.00, 295.00,0.00000,000.000, 0.00000, 0.00000, 0.00000, 0.00000, 1
     25,     24,'1 ',  0.00002,  0.00021,  0.00000, 876.00, 876.00, 876.00,0.00000,000.000, 0.00000, 0.00000, 0.00000, 0.00000, 1
     27,     14,'1 ',  0.01262,  0.09326,  0.14324, 231.00, 231.00, 231.00,0.00000,000.000, 0.00000, 0.00000, 0.00000, 0.00000, 1
     27,     26,'1 ',  0.00002,  0.00021,  0.00000, 876.00, 876.00, 876.00,0.00000,000.000, 0.00000, 0.00000, 0.00000, 0.00000, 1
     29,     15,'1 ',  0.00442,  0.02374,  0.04477, 339.00, 339.00, 339.00,0.00000,000.000, 0.00000, 0.00000, 0.00000, 0.00000, 1
     29,     28,'1 ',  0.00002,  0.00021,  0.00000, 876.00, 876.00, 876.00,0.00000,000.000, 0.00000, 0.00000, 0.00000, 0.00000, 1
     31,      6,'1 ',  0.00457,  0.03351,  0.05245, 317.00, 317.00, 317.00,0.00000,000.000, 0.00000, 0.00000, 0.00000, 0.00000, 1
     31,     30,'1 ',  0.00002,  0.00021,  0.00000, 876.00, 876.00, 876.00,0.00000,000.000, 0.00000, 0.00000, 0.00000, 0.00000, 1
     32,     12,'1 ',  0.00298,  0.03445,  0.94221, 831.00, 831.00, 831.00,0.00000,000.000, 0.00000, 0.00000, 0.00000, 0.00000, 1
     32,    218,'1 ',  0.00217,  0.02513,  0.67098,1154.00,1154.00,1154.00,0.00000,000.000, 0.00000, 0.00000, 0.00000, 0.00000, 1
     33,     32,'1 ',  0.00001,  0.00006,  0.00000,1593.00,1593.00,1593.00,0.00000,000.000, 0.00000, 0.00000, 0.00000, 0.00000, 1
     34,     33,'1 ',  0.00070,  0.03652,  0.00000, 366.47, 476.41, 250.00,0.999900,0.000000,0.000000,0.000000,00.00000,00.00000, 1
     35,      1,'1 ',  0.00120,  0.00890,  0.01512, 461.00, 461.00, 461.00,0.00000,000.000, 0.00000, 0.00000, 0.00000, 0.00000, 1
     35,      7,'1 ',  0.00924,  0.05052,  0.07698, 367.86, 478.22, 295.00,0.00000,000.000, 0.00000, 0.00000, 0.00000, 0.00000, 1
     35,     25,'1 ',  0.00585,  0.04027,  0.07161, 400.00, 400.00, 400.00,0.00000,000.000, 0.00000, 0.00000, 0.00000, 0.00000, 1
     35,     37,'1 ',  0.00036,  0.02519,  0.00000, 500.00, 500.00, 500.00,1.073130,0.000000,0.000000,0.000000,00.00000,00.00000, 1
     35,    105,'1 ',  0.00919,  0.06614,  0.10451, 375.00, 375.00, 375.00,0.00000,000.000, 0.00000, 0.00000, 0.00000, 0.00000, 1
     36,      2,'1 ',  0.00120,  0.00890,  0.01513, 461.00, 461.00, 461.00,0.00000,000.000, 0.00000, 0.00000, 0.00000, 0.00000, 1
     36,     24,'1 ',  0.00585,  0.04027,  0.07161, 463.05, 601.97, 400.00,0.00000,000.000, 0.00000, 0.00000, 0.00000, 0.00000, 1
     36,     30,'1 ',  0.00399,  0.02901,  0.04808, 380.00, 380.00, 380.00,0.00000,000.000, 0.00000, 0.00000, 0.00000, 0.00000, 1
     36,     38,'1 ',  0.00036,  0.02519,  0.00000, 500.00, 500.00, 500.00,1.073130,0.000000,0.000000,0.000000,00.00000,00.00000, 1
     36,    106,'1 ',  0.00822,  0.05767,  0.09820, 400.00, 400.00, 400.00,0.00000,000.000, 0.00000, 0.00000, 0.00000, 0.00000, 1
     37,     32,'1 ',  0.00358,  0.04122,  1.13380,1154.00,1154.00,1154.00,0.00000,000.000, 0.00000, 0.00000, 0.00000, 0.00000, 1
     37,     41,'1 ',  0.00097,  0.01052,  0.28395, 970.00, 970.00, 970.00,0.00000,000.000, 0.00000, 0.00000, 0.00000, 0.00000, 1
     37,    139,'1 ',  0.00234,  0.02677,  0.74653,1154.00,1154.00,1154.00,0.00000,000.000, 0.00000, 0.00000, 0.00000, 0.00000, 1
     38,     37,'1 ',  0.00001,  0.00006,  0.00000,1593.00,1593.00,1593.00,0.00000,000.000, 0.00000, 0.00000, 0.00000, 0.00000, 1
     38,    108,'1 ',  0.00137,  0.01569,  0.43744,1154.00,1154.00,1154.00,0.00000,000.000, 0.00000, 0.00000, 0.00000, 0.00000, 1
     40,     15,'1 ',  0.00525,  0.03847,  0.06053, 231.00, 231.00, 231.00,0.00000,000.000, 0.00000, 0.00000, 0.00000, 0.00000, 1
     40,     39,'1 ',  0.00002,  0.00021,  0.00000, 876.00, 876.00, 876.00,0.00000,000.000, 0.00000, 0.00000, 0.00000, 0.00000, 1
     41,    184,'1 ',  0.00126,  0.01446,  0.40160,1010.89,1314.16, 838.00,0.00000,000.000, 0.00000, 0.00000, 0.00000, 0.00000, 1
     42,     41,'1 ',  0.00001,  0.00006,  0.00000,1593.00,1593.00,1593.00,0.00000,000.000, 0.00000, 0.00000, 0.00000, 0.00000, 1
     43,     15,'1 ',  0.00089,  0.00630,  0.01080, 231.00, 231.00, 231.00,0.00000,000.000, 0.00000, 0.00000, 0.00000, 0.00000, 1
     44,     21,'1 ',  0.00023,  0.00264,  0.07296, 838.00, 838.00, 838.00,0.00000,000.000, 0.00000, 0.00000, 0.00000, 0.00000, 1
     45,      7,'1 ',  0.00494,  0.02690,  0.04225, 250.00, 250.00, 250.00,0.00000,000.000, 0.00000, 0.00000, 0.00000, 0.00000, 1
     46,     45,'1 ',  0.00002,  0.00021,  0.00000, 876.00, 876.00, 876.00,0.00000,000.000, 0.00000, 0.00000, 0.00000, 0.00000, 1
     49,     68,'1 ',  0.00329,  0.02506,  0.04390, 317.00, 317.00, 317.00,0.00000,000.000, 0.00000, 0.00000, 0.00000, 0.00000, 1
     50,     48,'1 ',  0.00789,  0.05868,  0.08985, 231.00, 231.00, 231.00,0.00000,000.000, 0.00000, 0.00000, 0.00000, 0.00000, 1
     50,     49,'1 ',  0.00002,  0.00021,  0.00000, 876.00, 876.00, 876.00,0.00000,000.000, 0.00000, 0.00000, 0.00000, 0.00000, 1
     52,    106,'1 ',  0.01116,  0.07171,  0.10367, 267.00, 267.00, 267.00,0.00000,000.000, 0.00000, 0.00000, 0.00000, 0.00000, 1
     53,     52,'1 ',  0.00002,  0.00021,  0.00000, 876.00, 876.00, 876.00,0.00000,000.000, 0.00000, 0.00000, 0.00000, 0.00000, 1
     53,     54,'1 ',  0.00034,  0.02097,  0.00000, 500.00, 500.00, 500.00,1.075500,0.000000,0.000000,0.000000,00.00000,00.00000, 1
     53,    124,'1 ',  0.01488,  0.08161,  0.11480, 266.00, 266.00, 266.00,0.00000,000.000, 0.00000, 0.00000, 0.00000, 0.00000, 1
     54,     70,'1 ',  0.00218,  0.02536,  0.68579, 838.00, 838.00, 838.00,0.00000,000.000, 0.00000, 0.00000, 0.00000, 0.00000, 1
     56,     28,'1 ',  0.01174,  0.07014,  0.12689, 419.34, 545.14, 339.00,0.00000,000.000, 0.00000, 0.00000, 0.00000, 0.00000, 1
     56,     55,'1 ',  0.00002,  0.00021,  0.00000, 876.00, 876.00, 876.00,0.00000,000.000, 0.00000, 0.00000, 0.00000, 0.00000, 1
     57,     14,'1 ',  0.01457,  0.07362,  0.13344, 515.45, 670.08, 356.00,0.00000,000.000, 0.00000, 0.00000, 0.00000, 0.00000, 1
     57,     55,'1 ',  0.00002,  0.00021,  0.00000, 876.00, 876.00, 876.00,0.00000,000.000, 0.00000, 0.00000, 0.00000, 0.00000, 1
     57,     59,'1 ',  0.00034,  0.02097,  0.00000, 500.00, 500.00, 500.00,1.073130,0.000000,0.000000,0.000000,00.00000,00.00000, 1
     58,     12,'1 ',  0.00150,  0.01506,  0.40320,1154.00,1154.00,1154.00,0.00000,000.000, 0.00000, 0.00000, 0.00000, 0.00000, 1
     59,     58,'1 ',  0.00001,  0.00006,  0.00000,1593.00,1593.00,1593.00,0.00000,000.000, 0.00000, 0.00000, 0.00000, 0.00000, 1
     60,     52,'1 ',  0.00242,  0.01531,  0.02249, 287.00, 287.00, 287.00,0.00000,000.000, 0.00000, 0.00000, 0.00000, 0.00000, 1
     61,    137,'1 ',  0.00144,  0.01446,  0.51213,1386.00,1386.00,1386.00,0.00000,000.000, 0.00000, 0.00000, 0.00000, 0.00000, 1
     62,     61,'1 ',  0.00001,  0.00006,  0.00000,1593.00,1593.00,1593.00,0.00000,000.000, 0.00000, 0.00000, 0.00000, 0.00000, 1
     62,     79,'1 ',  0.00119,  0.01428,  0.36666,1154.00,1154.00,1154.00,0.00000,000.000, 0.00000, 0.00000, 0.00000, 0.00000, 1
     63,     59,'1 ',  0.00170,  0.01977,  0.53386, 838.00, 838.00, 838.00,0.00000,000.000, 0.00000, 0.00000, 0.00000, 0.00000, 1
     64,     47,'1 ',  0.01070,  0.06628,  0.10825, 287.00, 287.00, 287.00,0.00000,000.000, 0.00000, 0.00000, 0.00000, 0.00000, 1
     65,     51,'1 ',  0.00700,  0.05138,  0.08084, 231.00, 231.00, 231.00,0.00000,000.000, 0.00000, 0.00000, 0.00000, 0.00000, 1
     65,     64,'1 ',  0.00002,  0.00021,  0.00000, 876.00, 876.00, 876.00,0.00000,000.000, 0.00000, 0.00000, 0.00000, 0.00000, 1
     66,     58,'1 ',  0.00184,  0.02139,  0.57770, 838.00, 838.00, 838.00,0.00000,000.000, 0.00000, 0.00000, 0.00000, 0.00000, 1
     67,     66,'1 ',  0.00001,  0.00006,  0.00000,1593.00,1593.00,1593.00,0.00000,000.000, 0.00000, 0.00000, 0.00000, 0.00000, 1
     68,     70,'1 ',  0.00081,  0.03000,  0.00000, 400.00, 400.00, 400.00,1.101020,0.000000,0.000000,0.000000,00.00000,00.00000, 1
     69,     50,'1 ',  0.00558,  0.04062,  0.06491, 341.00, 341.00, 341.00,0.00000,000.000, 0.00000, 0.00000, 0.00000, 0.00000, 1
     69,     68,'1 ',  0.00002,  0.00021,  0.00000, 876.00, 876.00, 876.00,0.00000,000.000, 0.00000, 0.00000, 0.00000, 0.00000, 1
     71,     67,'1 ',  0.00116,  0.01300,  0.33856, 838.00, 838.00, 838.00,0.00000,000.000, 0.00000, 0.00000, 0.00000, 0.00000, 1
     71,     70,'1 ',  0.00001,  0.00006,  0.00000,1593.00,1593.00,1593.00,0.00000,000.000, 0.00000, 0.00000, 0.00000, 0.00000, 1
     72,     55,'1 ',  0.00543,  0.03733,  0.06668, 341.00, 341.00, 341.00,0.00000,000.000, 0.00000, 0.00000, 0.00000, 0.00000, 1
     73,     47,'1 ',  0.00657,  0.04810,  0.07270, 319.00, 319.00, 319.00,0.00000,000.000, 0.00000, 0.00000, 0.00000, 0.00000, 1
     73,     57,'1 ',  0.00543,  0.03733,  0.06668, 341.00, 341.00, 341.00,0.00000,000.000, 0.00000, 0.00000, 0.00000, 0.00000, 1
     73,     72,'1 ',  0.00002,  0.00021,  0.00000, 876.00, 876.00, 876.00,0.00000,000.000, 0.00000, 0.00000, 0.00000, 0.00000, 1
     74,     69,'1 ',  0.00905,  0.06723,  0.10296, 231.00, 231.00, 231.00,0.00000,000.000, 0.00000, 0.00000, 0.00000, 0.00000, 1
     75,     53,'1 ',  0.00246,  0.01826,  0.02798, 231.00, 231.00, 231.00,0.00000,000.000, 0.00000, 0.00000, 0.00000, 0.00000, 1
     75,     74,'1 ',  0.00002,  0.00021,  0.00000, 876.00, 876.00, 876.00,0.00000,000.000, 0.00000, 0.00000, 0.00000, 0.00000, 1
     76,     52,'1 ',  0.01219,  0.06370,  0.09333, 266.00, 266.00, 266.00,0.00000,000.000, 0.00000, 0.00000, 0.00000, 0.00000, 1
     76,     55,'1 ',  0.00618,  0.04353,  0.07649, 341.00, 341.00, 341.00,0.00000,000.000, 0.00000, 0.00000, 0.00000, 0.00000, 1
     77,     56,'1 ',  0.00618,  0.04353,  0.07649, 266.00, 266.00, 266.00,0.00000,000.000, 0.00000, 0.00000, 0.00000, 0.00000, 1
     77,     72,'1 ',  0.01054,  0.06151,  0.09306, 197.00, 197.00, 197.00,0.00000,000.000, 0.00000, 0.00000, 0.00000, 0.00000, 1
     77,     76,'1 ',  0.00002,  0.00021,  0.00000, 876.00, 876.00, 876.00,0.00000,000.000, 0.00000, 0.00000, 0.00000, 0.00000, 1
     78,     71,'1 ',  0.00105,  0.01123,  0.28195,1119.00,1119.00,1119.00,0.00000,000.000, 0.00000, 0.00000, 0.00000, 0.00000, 1
     79,     78,'1 ',  0.00001,  0.00006,  0.00000,1593.00,1593.00,1593.00,0.00000,000.000, 0.00000, 0.00000, 0.00000, 0.00000, 1
     81,     47,'1 ',  0.01140,  0.06587,  0.09975, 274.00, 274.00, 274.00,0.00000,000.000, 0.00000, 0.00000, 0.00000, 0.00000, 1
     81,     49,'1 ',  0.00452,  0.03366,  0.05156, 341.00, 341.00, 341.00,0.00000,000.000, 0.00000, 0.00000, 0.00000, 0.00000, 1
     81,     80,'1 ',  0.00134,  0.00996,  0.01337, 287.00, 287.00, 287.00,0.00000,000.000, 0.00000, 0.00000, 0.00000, 0.00000, 1
     82,     65,'1 ',  0.00302,  0.02010,  0.03069, 339.00, 339.00, 339.00,0.00000,000.000, 0.00000, 0.00000, 0.00000, 0.00000, 1
     87,     86,'1 ',  0.00002,  0.00021,  0.00000, 876.00, 876.00, 876.00,0.00000,000.000, 0.00000, 0.00000, 0.00000, 0.00000, 1
     89,     88,'1 ',  0.00002,  0.00021,  0.00000, 876.00, 876.00, 876.00,0.00000,000.000, 0.00000, 0.00000, 0.00000, 0.00000, 1
     89,    122,'1 ',  0.01093,  0.05919,  0.08439, 180.00, 180.00, 180.00,0.00000,000.000, 0.00000, 0.00000, 0.00000, 0.00000, 1
     91,     90,'1 ',  0.00002,  0.00021,  0.00000, 876.00, 876.00, 876.00,0.00000,000.000, 0.00000, 0.00000, 0.00000, 0.00000, 1
     92,     87,'1 ',  0.00213,  0.01403,  0.02260, 250.00, 250.00, 250.00,0.00000,000.000, 0.00000, 0.00000, 0.00000, 0.00000, 1
     93,     90,'1 ',  0.00519,  0.03839,  0.05875, 400.00, 400.00, 400.00,0.00000,000.000, 0.00000, 0.00000, 0.00000, 0.00000, 1
     93,    148,'1 ',  0.00192,  0.01355,  0.02300, 341.00, 341.00, 341.00,0.00000,000.000, 0.00000, 0.00000, 0.00000, 0.00000, 1
     95,     94,'1 ',  0.00002,  0.00021,  0.00000, 876.00, 876.00, 876.00,0.00000,000.000, 0.00000, 0.00000, 0.00000, 0.00000, 1
     95,    128,'1 ',  0.00217,  0.01459,  0.02575, 197.00, 197.00, 197.00,0.00000,000.000, 0.00000, 0.00000, 0.00000, 0.00000, 1
     97,     41,'1 ',  0.00355,  0.03617,  0.95894, 717.00, 717.00, 717.00,0.00000,000.000, 0.00000, 0.00000, 0.00000, 0.00000, 1
     97,     96,'1 ',  0.00001,  0.00006,  0.00000,1593.00,1593.00,1593.00,0.00000,000.000, 0.00000, 0.00000, 0.00000, 0.00000, 1
     97,    145,'1 ',  0.00213,  0.02432,  0.67744,1240.00,1240.00,1240.00,0.00000,000.000, 0.00000, 0.00000, 0.00000, 0.00000, 1
     97,   3113,'1 ',  0.00293,  0.03054,  0.95472,1206.00,1206.00,1206.00,0.00000,000.000, 0.00000, 0.00000, 0.00000, 0.00000, 1
     98,    112,'1 ',  0.00570,  0.04149,  0.06617, 341.00, 341.00, 341.00,0.00000,000.000, 0.00000, 0.00000, 0.00000, 0.00000, 1
    100,     99,'1 ',  0.00002,  0.00021,  0.00000, 876.00, 876.00, 876.00,0.00000,000.000, 0.00000, 0.00000, 0.00000, 0.00000, 1
    101,    105,'1 ',  0.00136,  0.00990,  0.01586, 400.00, 400.00, 400.00,0.00000,000.000, 0.00000, 0.00000, 0.00000, 0.00000, 1
    102,    101,'1 ',  0.00002,  0.00021,  0.00000, 876.00, 876.00, 876.00,0.00000,000.000, 0.00000, 0.00000, 0.00000, 0.00000, 1
    104,     92,'1 ',  0.00446,  0.03041,  0.04867, 180.00, 180.00, 180.00,0.00000,000.000, 0.00000, 0.00000, 0.00000, 0.00000, 1
    104,    103,'1 ',  0.00002,  0.00021,  0.00000, 876.00, 876.00, 876.00,0.00000,000.000, 0.00000, 0.00000, 0.00000, 0.00000, 1
    105,    107,'1 ',  0.00075,  0.02445, -0.00832, 330.00, 330.00, 330.00,1.039000,0.000000,0.000000,0.000000,00.00000,00.00000, 1
    106,     83,'1 ',  0.00207,  0.01279,  0.02055, 197.00, 197.00, 197.00,0.00000,000.000, 0.00000, 0.00000, 0.00000, 0.00000, 1
    106,    105,'1 ',  0.00002,  0.00021,  0.00000, 876.00, 876.00, 876.00,0.00000,000.000, 0.00000, 0.00000, 0.00000, 0.00000, 1
    106,    108,'1 ',  0.00040,  0.02530,  0.00000, 500.00, 500.00, 500.00,1.045700,0.000000,0.000000,0.000000,00.00000,00.00000, 1
    106,    149,'1 ',  0.00083,  0.00525,  0.00868, 250.00, 250.00, 250.00,0.00000,000.000, 0.00000, 0.00000, 0.00000, 0.00000, 1
    107,     41,'1 ',  0.00097,  0.01052,  0.28395, 970.00, 970.00, 970.00,0.00000,000.000, 0.00000, 0.00000, 0.00000, 0.00000, 1
    108,    107,'1 ',  0.00001,  0.00006,  0.00000,1593.00,1593.00,1593.00,0.00000,000.000, 0.00000, 0.00000, 0.00000, 0.00000, 1
    108,    144,'1 ',  0.00241,  0.02782,  0.77066,1154.00,1154.00,1154.00,0.00000,000.000, 0.00000, 0.00000, 0.00000, 0.00000, 1
    110,    109,'1 ',  0.00002,  0.00021,  0.00000, 876.00, 876.00, 876.00,0.00000,000.000, 0.00000, 0.00000, 0.00000, 0.00000, 1
    111,    142,'1 ',  0.00488,  0.03362,  0.05961, 341.00, 341.00, 341.00,0.00000,000.000, 0.00000, 0.00000, 0.00000, 0.00000, 1
    112,    111,'1 ',  0.00002,  0.00021,  0.00000, 876.00, 876.00, 876.00,0.00000,000.000, 0.00000, 0.00000, 0.00000, 0.00000, 1
    113,     93,'1 ',  0.00341,  0.02442,  0.03997, 317.00, 317.00, 317.00,0.00000,000.000, 0.00000, 0.00000, 0.00000, 0.00000, 1
    114,    113,'1 ',  0.00002,  0.00021,  0.00000, 876.00, 876.00, 876.00,0.00000,000.000, 0.00000, 0.00000, 0.00000, 0.00000, 1
    115,     68,'1 ',  0.00374,  0.04380,  0.10096, 476.00, 476.00, 476.00,0.00000,000.000, 0.00000, 0.00000, 0.00000, 0.00000, 1
    115,     85,'1 ',  0.00079,  0.00488,  0.00726, 137.00, 137.00, 137.00,0.00000,000.000, 0.00000, 0.00000, 0.00000, 0.00000, 1
    115,    135,'1 ',  0.01589,  0.08320,  0.11439, 266.00, 266.00, 266.00,0.00000,000.000, 0.00000, 0.00000, 0.00000, 0.00000, 1
    116,     84,'1 ',  0.00079,  0.00488,  0.00724, 137.00, 137.00, 137.00,0.00000,000.000, 0.00000, 0.00000, 0.00000, 0.00000, 1
    116,    115,'1 ',  0.00002,  0.00021,  0.00000, 876.00, 876.00, 876.00,0.00000,000.000, 0.00000, 0.00000, 0.00000, 0.00000, 1
    117,     91,'1 ',  0.00159,  0.01112,  0.01913, 396.00, 396.00, 396.00,0.00000,000.000, 0.00000, 0.00000, 0.00000, 0.00000, 1
    118,     86,'1 ',  0.01122,  0.07074,  0.11571, 180.00, 180.00, 180.00,0.00000,000.000, 0.00000, 0.00000, 0.00000, 0.00000, 1
    118,    117,'1 ',  0.00002,  0.00021,  0.00000, 876.00, 876.00, 876.00,0.00000,000.000, 0.00000, 0.00000, 0.00000, 0.00000, 1
    119,     99,'1 ',  0.00145,  0.01008,  0.01719, 231.00, 231.00, 231.00,0.00000,000.000, 0.00000, 0.00000, 0.00000, 0.00000, 1
    120,    110,'1 ',  0.00384,  0.02721,  0.04517, 231.00, 231.00, 231.00,0.00000,000.000, 0.00000, 0.00000, 0.00000, 0.00000, 1
    120,    119,'1 ',  0.00002,  0.00021,  0.00000, 876.00, 876.00, 876.00,0.00000,000.000, 0.00000, 0.00000, 0.00000, 0.00000, 1
    121,    103,'1 ',  0.00171,  0.00961,  0.01424, 250.00, 250.00, 250.00,0.00000,000.000, 0.00000, 0.00000, 0.00000, 0.00000, 1
    121,    149,'1 ',  0.00537,  0.04039,  0.06005, 319.00, 319.00, 319.00,0.00000,000.000, 0.00000, 0.00000, 0.00000, 0.00000, 1
    122,    109,'1 ',  0.00194,  0.01415,  0.02230, 341.00, 341.00, 341.00,0.00000,000.000, 0.00000, 0.00000, 0.00000, 0.00000, 1
    122,    121,'1 ',  0.00002,  0.00021,  0.00000, 876.00, 876.00, 876.00,0.00000,000.000, 0.00000, 0.00000, 0.00000, 0.00000, 1
    123,    105,'1 ',  0.00390,  0.02847,  0.04498, 317.00, 317.00, 317.00,0.00000,000.000, 0.00000, 0.00000, 0.00000, 0.00000, 1
    124,    114,'1 ',  0.00316,  0.02378,  0.03527, 231.00, 231.00, 231.00,0.00000,000.000, 0.00000, 0.00000, 0.00000, 0.00000, 1
    124,    123,'1 ',  0.00002,  0.00021,  0.00000, 876.00, 876.00, 876.00,0.00000,000.000, 0.00000, 0.00000, 0.00000, 0.00000, 1
    125,    133,'1 ',  0.00601,  0.04147,  0.07364, 308.00, 308.00, 308.00,0.00000,000.000, 0.00000, 0.00000, 0.00000, 0.00000, 1
    127,     94,'1 ',  0.00777,  0.04128,  0.06391, 197.00, 197.00, 197.00,0.00000,000.000, 0.00000, 0.00000, 0.00000, 0.00000, 1
    127,    126,'1 ',  0.00002,  0.00021,  0.00000, 876.00, 876.00, 876.00,0.00000,000.000, 0.00000, 0.00000, 0.00000, 0.00000, 1
    129,     92,'1 ',  0.00463,  0.02775,  0.04612, 267.00, 267.00, 267.00,0.00000,000.000, 0.00000, 0.00000, 0.00000, 0.00000, 1
    129,    128,'1 ',  0.00002,  0.00021,  0.00000, 876.00, 876.00, 876.00,0.00000,000.000, 0.00000, 0.00000, 0.00000, 0.00000, 1
    130,    145,'1 ',  0.00092,  0.01051,  0.29293, 838.00, 838.00, 838.00,0.00000,000.000, 0.00000, 0.00000, 0.00000, 0.00000, 1
    131,    130,'1 ',  0.00001,  0.00006,  0.00000,1593.00,1593.00,1593.00,0.00000,000.000, 0.00000, 0.00000, 0.00000, 0.00000, 1
    132,     93,'1 ',  0.00184,  0.01260,  0.02240, 231.00, 231.00, 231.00,0.00000,000.000, 0.00000, 0.00000, 0.00000, 0.00000, 1
    132,    116,'1 ',  0.01773,  0.11678,  0.16361, 250.00, 250.00, 250.00,0.00000,000.000, 0.00000, 0.00000, 0.00000, 0.00000, 1
    133,     92,'1 ',  0.00184,  0.01260,  0.02239, 231.00, 231.00, 231.00,0.00000,000.000, 0.00000, 0.00000, 0.00000, 0.00000, 1
    133,    123,'1 ',  0.00589,  0.03506,  0.05235, 267.00, 267.00, 267.00,0.00000,000.000, 0.00000, 0.00000, 0.00000, 0.00000, 1
    133,    132,'1 ',  0.00002,  0.00021,  0.00000, 876.00, 876.00, 876.00,0.00000,000.000, 0.00000, 0.00000, 0.00000, 0.00000, 1
    134,     93,'1 ',  0.00816,  0.04242,  0.06120, 314.00, 314.00, 314.00,0.00000,000.000, 0.00000, 0.00000, 0.00000, 0.00000, 1
    135,     92,'1 ',  0.00816,  0.04242,  0.06120, 314.00, 314.00, 314.00,0.00000,000.000, 0.00000, 0.00000, 0.00000, 0.00000, 1
    135,    134,'1 ',  0.00002,  0.00021,  0.00000, 876.00, 876.00, 876.00,0.00000,000.000, 0.00000, 0.00000, 0.00000, 0.00000, 1
    136,     70,'1 ',  0.00169,  0.01931,  0.53814, 866.00, 866.00, 866.00,0.00000,000.000, 0.00000, 0.00000, 0.00000, 0.00000, 1
    136,     78,'1 ',  0.00152,  0.01739,  0.48083, 866.00, 866.00, 866.00,0.00000,000.000, 0.00000, 0.00000, 0.00000, 0.00000, 1
    137,    136,'1 ',  0.00001,  0.00006,  0.00000,1593.00,1593.00,1593.00,0.00000,000.000, 0.00000, 0.00000, 0.00000, 0.00000, 1
    138,     78,'1 ',  0.00468,  0.05347,  1.48880, 831.00, 831.00, 831.00,0.00000,000.000, 0.00000, 0.00000, 0.00000, 0.00000, 1
    138,    130,'1 ',  0.00091,  0.01040,  0.28989, 838.00, 838.00, 838.00,0.00000,000.000, 0.00000, 0.00000, 0.00000, 0.00000, 1
    139,    137,'1 ',  0.00312,  0.03563,  0.99107, 831.00, 831.00, 831.00,0.00000,000.000, 0.00000, 0.00000, 0.00000, 0.00000, 1
    139,    138,'1 ',  0.00001,  0.00006,  0.00000,1593.00,1593.00,1593.00,0.00000,000.000, 0.00000, 0.00000, 0.00000, 0.00000, 1
    140,    125,'1 ',  0.00215,  0.01333,  0.02211, 250.00, 250.00, 250.00,0.00000,000.000, 0.00000, 0.00000, 0.00000, 0.00000, 1
    141,    134,'1 ',  0.00461,  0.02492,  0.03560, 266.00, 266.00, 266.00,0.00000,000.000, 0.00000, 0.00000, 0.00000, 0.00000, 1
    141,    140,'1 ',  0.00002,  0.00021,  0.00000, 876.00, 876.00, 876.00,0.00000,000.000, 0.00000, 0.00000, 0.00000, 0.00000, 1
    142,    119,'1 ',  0.00314,  0.02159,  0.03839, 341.00, 341.00, 341.00,0.00000,000.000, 0.00000, 0.00000, 0.00000, 0.00000, 1
    142,    145,'1 ',  0.00053,  0.02875, -0.01600, 400.00, 400.00, 400.00,1.062990,0.000000,0.000000,0.000000,00.00000,00.00000, 1
    143,     88,'1 ',  0.00593,  0.04093,  0.07215, 341.00, 341.00, 341.00,0.00000,000.000, 0.00000, 0.00000, 0.00000, 0.00000, 1
    143,    126,'1 ',  0.00455,  0.03157,  0.05531, 231.00, 231.00, 231.00,0.00000,000.000, 0.00000, 0.00000, 0.00000, 0.00000, 1
    143,    142,'1 ',  0.00002,  0.00021,  0.00000, 876.00, 876.00, 876.00,0.00000,000.000, 0.00000, 0.00000, 0.00000, 0.00000, 1
    143,   2144,'1 ',  0.00139,  0.06852, -0.00232, 160.00, 160.00, 160.00,1.022400,0.000000,0.000000,0.000000,00.00000,00.00000, 1
    144,   3115,'1 ',  0.00168,  0.01603,  0.51488,1206.00,1206.00,1206.00,0.00000,000.000, 0.00000, 0.00000, 0.00000, 0.00000, 1
    145,    144,'1 ',  0.00001,  0.00006,  0.00000,1593.00,1593.00,1593.00,0.00000,000.000, 0.00000, 0.00000, 0.00000, 0.00000, 1
    146,    102,'1 ',  0.00058,  0.00417,  0.00684, 341.00, 341.00, 341.00,0.00000,000.000, 0.00000, 0.00000, 0.00000, 0.00000, 1
    147,    146,'1 ',  0.00002,  0.00021,  0.00000, 876.00, 876.00, 876.00,0.00000,000.000, 0.00000, 0.00000, 0.00000, 0.00000, 1
    148,    100,'1 ',  0.00238,  0.01667,  0.02846, 341.00, 341.00, 341.00,0.00000,000.000, 0.00000, 0.00000, 0.00000, 0.00000, 1
    149,    147,'1 ',  0.00066,  0.00496,  0.00758, 319.00, 319.00, 319.00,0.00000,000.000, 0.00000, 0.00000, 0.00000, 0.00000, 1
    150,     90,'1 ',  0.00085,  0.00632,  0.00931, 457.00, 457.00, 457.00,0.00000,000.000, 0.00000, 0.00000, 0.00000, 0.00000, 1
    151,     91,'1 ',  0.00085,  0.00612,  0.00964, 457.00, 457.00, 457.00,0.00000,000.000, 0.00000, 0.00000, 0.00000, 0.00000, 1
    152,     25,'1 ',  0.01068,  0.04750,  0.09495, 339.00, 339.00, 339.00,0.00000,000.000, 0.00000, 0.00000, 0.00000, 0.00000, 1
    153,     46,'1 ',  0.01298,  0.06738,  0.10284, 250.00, 250.00, 250.00,0.00000,000.000, 0.00000, 0.00000, 0.00000, 0.00000, 1
    153,    152,'1 ',  0.00002,  0.00021,  0.00000, 876.00, 876.00, 876.00,0.00000,000.000, 0.00000, 0.00000, 0.00000, 0.00000, 1
    154,    158,'1 ',  0.00514,  0.03826,  0.05933, 231.00, 231.00, 231.00,0.00000,000.000, 0.00000, 0.00000, 0.00000, 0.00000, 1
    155,    154,'1 ',  0.00002,  0.00021,  0.00000, 876.00, 876.00, 876.00,0.00000,000.000, 0.00000, 0.00000, 0.00000, 0.00000, 1
    156,    166,'1 ',  0.00083,  0.00645,  0.00951, 317.00, 317.00, 317.00,0.00000,000.000, 0.00000, 0.00000, 0.00000, 0.00000, 1
    156,    202,'1 ',  0.00519,  0.03965,  0.05836, 317.00, 317.00, 317.00,0.00000,000.000, 0.00000, 0.00000, 0.00000, 0.00000, 1
...
0 / END OF BRANCH DATA, BEGIN TRANSFORMER ADJUSTMENT DATA
      5,      3,'1 ',     5,1.500000,0.510000,1.500000,0.510000,0.006266,  0, 0,0.00000, 0.00000
      9,     11,'1 ',     9,1.500000,0.510000,1.500000,0.510000,0.006266,  0, 0,0.00000, 0.00000
     10,      8,'1 ',    10,1.500000,0.510000,1.500000,0.510000,0.006266,  0, 0,0.00000, 0.00000
     13,     12,'1 ',    13,1.500000,0.510000,1.500000,0.510000,0.006266,  0, 0,0.00000, 0.00000
     16,     14,'1 ',    16,1.500000,0.510000,1.500000,0.510000,0.006266,  0, 0,0.00000, 0.00000
     17,     15,'1 ',    17,1.500000,0.510000,1.500000,0.510000,0.006266,  0, 0,0.00000, 0.00000
     20,     18,'1 ',    20,1.500000,0.510000,1.500000,0.510000,0.006266,  0, 0,0.00000, 0.00000
     34,     33,'1 ',    34,1.500000,0.510000,1.500000,0.510000,0.006266,  0, 0,0.00000, 0.00000
     35,     37,'1 ',    35,1.500000,0.510000,1.500000,0.510000,0.006266,  0, 0,0.00000, 0.00000
     36,     38,'1 ',    36,1.500000,0.510000,1.500000,0.510000,0.006266,  0, 0,0.00000, 0.00000
     53,     54,'1 ',    53,1.500000,0.510000,1.500000,0.510000,0.006266,  0, 0,0.00000, 0.00000
     57,     59,'1 ',    57,1.500000,0.510000,1.500000,0.510000,0.006266,  0, 0,0.00000, 0.00000
     68,     70,'1 ',    68,1.500000,0.510000,1.500000,0.510000,0.006266,  0, 0,0.00000, 0.00000
    105,    107,'1 ',   105,1.500000,0.510000,1.500000,0.510000,0.006266,  0, 0,0.00000, 0.00000
    106,    108,'1 ',   106,1.500000,0.510000,1.500000,0.510000,0.006266,  0, 0,0.00000, 0.00000
    142,    145,'1 ',   142,1.500000,0.510000,1.500000,0.510000,0.006266,  0, 0,0.00000, 0.00000
    143,   2144,'1 ',   143,1.500000,0.510000,1.500000,0.510000,0.006266,  0, 0,0.00000, 0.00000
    170,    171,'1 ',   170,1.500000,0.510000,1.500000,0.510000,0.006266,  0, 0,0.00000, 0.00000
    177,    180,'1 ',   177,1.500000,0.510000,1.500000,0.510000,0.006266,  0, 0,0.00000, 0.00000
    178,    181,'1 ',   178,1.500000,0.510000,1.500000,0.510000,0.006266,  0, 0,0.00000, 0.00000
    185,    184,'1 ',   185,1.500000,0.510000,1.500000,0.510000,0.006266,  0, 0,0.00000, 0.00000
    188,    190,'1 ',   188,1.500000,0.510000,1.500000,0.510000,0.006266,  0, 0,0.00000, 0.00000
    195,    197,'1 ',   195,1.500000,0.510000,1.500000,0.510000,0.006266,  0, 0,0.00000, 0.00000
    208,    209,'1 ',   208,1.500000,0.510000,1.500000,0.510000,0.006266,  0, 0,0.00000, 0.00000
    213,    211,'1 ',   213,1.500000,0.510000,1.500000,0.510000,0.006266,  0, 0,0.00000, 0.00000
    216,    218,'1 ',   216,1.500000,0.510000,1.500000,0.510000,0.006266,  0, 0,0.00000, 0.00000
    220,    218,'1 ',   220,1.500000,0.510000,1.500000,0.510000,0.006266,  0, 0,0.00000, 0.00000
    223,    222,'1 ',   223,1.500000,0.510000,1.500000,0.510000,0.006266,  0, 0,0.00000, 0.00000
    224,    226,'1 ',   224,1.500000,0.510000,1.500000,0.510000,0.006266,  0, 0,0.00000, 0.00000
    227,    225,'1 ',   227,1.500000,0.510000,1.500000,0.510000,0.006266,  0, 0,0.00000, 0.00000
    316,     38,'1 ',   316,1.500000,0.510000,1.500000,0.510000,0.006266,  0, 0,0.00000, 0.00000
    316,    314,'1 ',   316,1.500000,0.510000,1.500000,0.510000,0.006266,  0, 0,0.00000, 0.00000
    319,      4,'1 ',   319,1.500000,0.510000,1.500000,0.510000,0.006266,  0, 0,0.00000, 0.00000
    320,      5,'1 ',   320,1.500000,0.510000,1.500000,0.510000,0.006266,  0, 0,0.00000, 0.00000
    321,      5,'1 ',   321,1.500000,0.510000,1.500000,0.510000,0.006266,  0, 0,0.00000, 0.00000
    361,      6,'1 ',   361,1.500000,0.510000,1.500000,0.510000,0.006266,  0, 0,0.00000, 0.00000
    362,      7,'1 ',   362,1.500000,0.510000,1.500000,0.510000,0.006266,  0, 0,0.00000, 0.00000
    459,     10,'1 ',   459,1.500000,0.510000,1.500000,0.510000,0.006266,  0, 0,0.00000, 0.00000
    460,     13,'1 ',   460,1.500000,0.510000,1.500000,0.510000,0.006266,  0, 0,0.00000, 0.00000
    461,     10,'1 ',   461,1.500000,0.510000,1.500000,0.510000,0.006266,  0, 0,0.00000, 0.00000
    462,     13,'1 ',   462,1.500000,0.510000,1.500000,0.510000,0.006266,  0, 0,0.00000, 0.00000
    474,     16,'1 ',   474,1.500000,0.510000,1.500000,0.510000,0.006266,  0, 0,0.00000, 0.00000
    475,     17,'1 ',   475,1.500000,0.510000,1.500000,0.510000,0.006266,  0, 0,0.00000, 0.00000
    476,     14,'1 ',   476,1.500000,0.510000,1.500000,0.510000,0.006266,  0, 0,0.00000, 0.00000
    477,     16,'1 ',   477,1.500000,0.510000,1.500000,0.510000,0.006266,  0, 0,0.00000, 0.00000
    478,     17,'1 ',   478,1.500000,0.510000,1.500000,0.510000,0.006266,  0, 0,0.00000, 0.00000
    486,     20,'1 ',   486,1.500000,0.510000,1.500000,0.510000,0.006266,  0, 0,0.00000, 0.00000
    488,     20,'1 ',   488,1.500000,0.510000,1.500000,0.510000,0.006266,  0, 0,0.00000, 0.00000
    496,     21,'1 ',   496,1.500000,0.510000,1.500000,0.510000,0.006266,  0, 0,0.00000, 0.00000
    517,     23,'1 ',   517,1.500000,0.510000,1.500000,0.510000,0.006266,  0, 0,0.00000, 0.00000
    518,     22,'1 ',   518,1.500000,0.510000,1.500000,0.510000,0.006266,  0, 0,0.00000, 0.00000
    525,     24,'1 ',   525,1.500000,0.510000,1.500000,0.510000,0.006266,  0, 0,0.00000, 0.00000
    526,     25,'1 ',   526,1.500000,0.510000,1.500000,0.510000,0.006266,  0, 0,0.00000, 0.00000
    527,      1,'1 ',   527,1.500000,0.510000,1.500000,0.510000,0.006266,  0, 0,0.00000, 0.00000
    528,      2,'1 ',   528,1.500000,0.510000,1.500000,0.510000,0.006266,  0, 0,0.00000, 0.00000
    533,     26,'1 ',   533,1.500000,0.510000,1.500000,0.510000,0.006266,  0, 0,0.00000, 0.00000
    534,     27,'1 ',   534,1.500000,0.510000,1.500000,0.510000,0.006266,  0, 0,0.00000, 0.00000
    540,     28,'1 ',   540,1.500000,0.510000,1.500000,0.510000,0.006266,  0, 0,0.00000, 0.00000
    541,     29,'1 ',   541,1.500000,0.510000,1.500000,0.510000,0.006266,  0, 0,0.00000, 0.00000
    542,     30,'1 ',   542,1.500000,0.510000,1.500000,0.510000,0.006266,  0, 0,0.00000, 0.00000
    543,     31,'1 ',   543,1.500000,0.510000,1.500000,0.510000,0.006266,  0, 0,0.00000, 0.00000
    554,     34,'1 ',   554,1.500000,0.510000,1.500000,0.510000,0.006266,  0, 0,0.00000, 0.00000
    556,     34,'1 ',   556,1.500000,0.510000,1.500000,0.510000,0.006266,  0, 0,0.00000, 0.00000
    632,     40,'1 ',   632,1.500000,0.510000,1.500000,0.510000,0.006266,  0, 0,0.00000, 0.00000
    667,     41,'1 ',   667,1.500000,0.510000,1.500000,0.510000,0.006266,  0, 0,0.00000, 0.00000
    668,     42,'1 ',   668,1.500000,0.510000,1.500000,0.510000,0.006266,  0, 0,0.00000, 0.00000
    752,     43,'1 ',   752,1.500000,0.510000,1.500000,0.510000,0.006266,  0, 0,0.00000, 0.00000
    811,     45,'1 ',   811,1.500000,0.510000,1.500000,0.510000,0.006266,  0, 0,0.00000, 0.00000
    834,     47,'1 ',   834,1.500000,0.510000,1.500000,0.510000,0.006266,  0, 0,0.00000, 0.00000
    839,     48,'1 ',   839,1.500000,0.510000,1.500000,0.510000,0.006266,  0, 0,0.00000, 0.00000
    863,     50,'1 ',   863,1.500000,0.510000,1.500000,0.510000,0.006266,  0, 0,0.00000, 0.00000
    867,     51,'1 ',   867,1.500000,0.510000,1.500000,0.510000,0.006266,  0, 0,0.00000, 0.00000
    922,     55,'1 ',   922,1.500000,0.510000,1.500000,0.510000,0.006266,  0, 0,0.00000, 0.00000
    923,     56,'1 ',   923,1.500000,0.510000,1.500000,0.510000,0.006266,  0, 0,0.00000, 0.00000
    925,     60,'1 ',   925,1.500000,0.510000,1.500000,0.510000,0.006266,  0, 0,0.00000, 0.00000
    928,     62,'1 ',   928,1.500000,0.510000,1.500000,0.510000,0.006266,  0, 0,0.00000, 0.00000
    959,     63,'1 ',   959,1.500000,0.510000,1.500000,0.510000,0.006266,  0, 0,0.00000, 0.00000
    980,     64,'1 ',   980,1.500000,0.510000,1.500000,0.510000,0.006266,  0, 0,0.00000, 0.00000
   1000,     67,'1 ',  1000,1.500000,0.510000,1.500000,0.510000,0.006266,  0, 0,0.00000, 0.00000
   1004,     66,'1 ',  1004,1.500000,0.510000,1.500000,0.510000,0.006266,  0, 0,0.00000, 0.00000
   1012,     69,'1 ',  1012,1.500000,0.510000,1.500000,0.510000,0.006266,  0, 0,0.00000, 0.00000
   1031,     75,'1 ',  1031,1.500000,0.510000,1.500000,0.510000,0.006266,  0, 0,0.00000, 0.00000
   1032,     74,'1 ',  1032,1.500000,0.510000,1.500000,0.510000,0.006266,  0, 0,0.00000, 0.00000
   1043,     77,'1 ',  1043,1.500000,0.510000,1.500000,0.510000,0.006266,  0, 0,0.00000, 0.00000
   1044,     76,'1 ',  1044,1.500000,0.510000,1.500000,0.510000,0.006266,  0, 0,0.00000, 0.00000
   1053,     78,'1 ',  1053,1.500000,0.510000,1.500000,0.510000,0.006266,  0, 0,0.00000, 0.00000
   1054,     79,'1 ',  1054,1.500000,0.510000,1.500000,0.510000,0.006266,  0, 0,0.00000, 0.00000
   1086,     80,'1 ',  1086,1.500000,0.510000,1.500000,0.510000,0.006266,  0, 0,0.00000, 0.00000
   1119,     82,'1 ',  1119,1.500000,0.510000,1.500000,0.510000,0.006266,  0, 0,0.00000, 0.00000
   1142,     83,'1 ',  1142,1.500000,0.510000,1.500000,0.510000,0.006266,  0, 0,0.00000, 0.00000
   1171,     86,'1 ',  1171,1.500000,0.510000,1.500000,0.510000,0.006266,  0, 0,0.00000, 0.00000
   1172,     87,'1 ',  1172,1.500000,0.510000,1.500000,0.510000,0.006266,  0, 0,0.00000, 0.00000
   1188,     88,'1 ',  1188,1.500000,0.510000,1.500000,0.510000,0.006266,  0, 0,0.00000, 0.00000
   1189,     89,'1 ',  1189,1.500000,0.510000,1.500000,0.510000,0.006266,  0, 0,0.00000, 0.00000
   1289,     96,'1 ',  1289,1.500000,0.510000,1.500000,0.510000,0.006266,  0, 0,0.00000, 0.00000
   1290,     96,'1 ',  1290,1.500000,0.510000,1.500000,0.510000,0.006266,  0, 0,0.00000, 0.00000
   1382,     98,'1 ',  1382,1.500000,0.510000,1.500000,0.510000,0.006266,  0, 0,0.00000, 0.00000
   1383,     98,'1 ',  1383,1.500000,0.510000,1.500000,0.510000,0.006266,  0, 0,0.00000, 0.00000
   1405,    100,'1 ',  1405,1.500000,0.510000,1.500000,0.510000,0.006266,  0, 0,0.00000, 0.00000
   1406,     99,'1 ',  1406,1.500000,0.510000,1.500000,0.510000,0.006266,  0, 0,0.00000, 0.00000
   1484,    103,'1 ',  1484,1.500000,0.510000,1.500000,0.510000,0.006266,  0, 0,0.00000, 0.00000
   1485,    104,'1 ',  1485,1.500000,0.510000,1.500000,0.510000,0.006266,  0, 0,0.00000, 0.00000
   1529,    110,'1 ',  1529,1.500000,0.510000,1.500000,0.510000,0.006266,  0, 0,0.00000, 0.00000
   1530,    109,'1 ',  1530,1.500000,0.510000,1.500000,0.510000,0.006266,  0, 0,0.00000, 0.00000
   1546,    111,'1 ',  1546,1.500000,0.510000,1.500000,0.510000,0.006266,  0, 0,0.00000, 0.00000
   1553,    116,'1 ',  1553,1.500000,0.510000,1.500000,0.510000,0.006266,  0, 0,0.00000, 0.00000
   1554,    115,'1 ',  1554,1.500000,0.510000,1.500000,0.510000,0.006266,  0, 0,0.00000, 0.00000
   1586,    118,'1 ',  1586,1.500000,0.510000,1.500000,0.510000,0.006266,  0, 0,0.00000, 0.00000
   1587,    117,'1 ',  1587,1.500000,0.510000,1.500000,0.510000,0.006266,  0, 0,0.00000, 0.00000
   1589,    119,'1 ',  1589,1.500000,0.510000,1.500000,0.510000,0.006266,  0, 0,0.00000, 0.00000
   1656,    121,'1 ',  1656,1.500000,0.510000,1.500000,0.510000,0.006266,  0, 0,0.00000, 0.00000
   1658,    122,'1 ',  1658,1.500000,0.510000,1.500000,0.510000,0.006266,  0, 0,0.00000, 0.00000
   1668,    120,'1 ',  1668,1.500000,0.510000,1.500000,0.510000,0.006266,  0, 0,0.00000, 0.00000
   1695,    123,'1 ',  1695,1.500000,0.510000,1.500000,0.510000,0.006266,  0, 0,0.00000, 0.00000
   1703,    125,'1 ',  1703,1.500000,0.510000,1.500000,0.510000,0.006266,  0, 0,0.00000, 0.00000
   1739,    126,'1 ',  1739,1.500000,0.510000,1.500000,0.510000,0.006266,  0, 0,0.00000, 0.00000
   1875,    128,'1 ',  1875,1.500000,0.510000,1.500000,0.510000,0.006266,  0, 0,0.00000, 0.00000
   1939,    130,'1 ',  1939,1.500000,0.510000,1.500000,0.510000,0.006266,  0, 0,0.00000, 0.00000
   1941,    130,'1 ',  1941,1.500000,0.510000,1.500000,0.510000,0.006266,  0, 0,0.00000, 0.00000
   1984,    132,'1 ',  1984,1.500000,0.510000,1.500000,0.510000,0.006266,  0, 0,0.00000, 0.00000
   1992,    135,'1 ',  1992,1.500000,0.510000,1.500000,0.510000,0.006266,  0, 0,0.00000, 0.00000
   1993,    134,'1 ',  1993,1.500000,0.510000,1.500000,0.510000,0.006266,  0, 0,0.00000, 0.00000
   2096,    136,'1 ',  2096,1.500000,0.510000,1.500000,0.510000,0.006266,  0, 0,0.00000, 0.00000
   2098,    138,'1 ',  2098,1.500000,0.510000,1.500000,0.510000,0.006266,  0, 0,0.00000, 0.00000
   2099,    139,'1 ',  2099,1.500000,0.510000,1.500000,0.510000,0.006266,  0, 0,0.00000, 0.00000
   2125,    141,'1 ',  2125,1.500000,0.510000,1.500000,0.510000,0.006266,  0, 0,0.00000, 0.00000
   2126,    140,'1 ',  2126,1.500000,0.510000,1.500000,0.510000,0.006266,  0, 0,0.00000, 0.00000
...